Circuit: * F:\Python\Circuit Solver\test.asc


Date: Fri Mar 05 16:07:47 2021
Total elapsed time: 0.037 seconds.

tnom = 27
temp = 27
method = trap
totiter = 0
traniter = 0
tranpoints = 0
accept = 0
rejected = 0
matrix size = 3
fillins = 1
solver = Normal

